8
	Energy:      -4.7343653
C          0.94642        0.03765       -0.07260
C          2.45848        0.03765       -0.07260
H          0.56205        0.21684        0.93595
H          0.56205       -0.92537       -0.42169
H          0.56205        0.82148       -0.73205
H          2.84285       -0.74619        0.58686
H          2.84285        1.00067        0.27650
H          2.84285       -0.14154       -1.08115
