8
	Energy:      -4.7343653
C          0.94642        0.03765       -0.07260
C          2.45848        0.03765       -0.07260
H          0.38499        0.02126       -1.08139
H          0.46594        0.91333        0.45011
H          0.83522       -0.82164        0.41348
H          2.84285       -0.74619        0.58686
H          2.84285        1.00067        0.27650
H          2.84285       -0.14154       -1.08115
